Reffs/Redes/Rede_03/_trafo3/Load.dss
! Created by 42 on 2017-12-19 14:47:34
New Load.c01 Bus1=bus_33998182_030.1.4     model = 6 Phases=1 kV=0.127017059222 kW=0.2172453704 PF=0.85 Vmaxpu=1.15 Vminpu = 0.50 Daily=media_9100-3
New Load.c02 Bus1=bus_33998182_025.2.4     model = 6 Phases=1 kV=0.127017059222 kW=0.2443287037 PF=0.85 Vmaxpu=1.15 Vminpu = 0.50 Daily=media_9100-2
New Load.c03 Bus1=bus_33998182_031.3.4     model = 6 Phases=1 kV=0.127017059222 kW=0.2612268519 PF=0.85 Vmaxpu=1.15 Vminpu = 0.50 Daily=media_9100-2
New Load.c04 Bus1=bus_33998182_032.3.4     model = 6 Phases=1 kV=0.127017059222 kW=0.3234953704 PF=0.85 Vmaxpu=1.15 Vminpu = 0.50 Daily=media_9100-3
New Load.c05 Bus1=bus_33998182_033.1.4     model = 6 Phases=1 kV=0.127017059222 kW=0.1795138889 PF=0.85 Vmaxpu=1.15 Vminpu = 0.50 Daily=media_9100-2
New Load.c06 Bus1=bus_33998182_029.3.4     model = 6 Phases=1 kV=0.127017059222 kW=0.1331018519 PF=0.85 Vmaxpu=1.15 Vminpu = 0.50 Daily=media_9100-1
New Load.c07 Bus1=bus_33998182_015.1.4     model = 6 Phases=1 kV=0.127017059222 kW=0.1651620370 PF=0.85 Vmaxpu=1.15 Vminpu = 0.50 Daily=media_9100-2
New Load.c08 Bus1=bus_33998182_038.2.4     model = 6 Phases=1 kV=0.127017059222 kW=0.1155092593 PF=0.85 Vmaxpu=1.15 Vminpu = 0.50 Daily=media_9100-1
New Load.c09 Bus1=bus_33998182_037.3.4     model = 6 Phases=1 kV=0.127017059222 kW=0.2328703704 PF=0.85 Vmaxpu=1.15 Vminpu = 0.50 Daily=media_9100-2
New Load.c10 Bus1=bus_33998182_028.1.4     model = 6 Phases=1 kV=0.127017059222 kW=0.2611111111 PF=0.85 Vmaxpu=1.15 Vminpu = 0.50 Daily=media_9100-2
New Load.c11 Bus1=bus_33998182_026.2.4     model = 6 Phases=1 kV=0.127017059222 kW=0.0815972222 PF=0.85 Vmaxpu=1.15 Vminpu = 0.50 Daily=media_9100-1
New Load.c12 Bus1=bus_33998182_027.3.4     model = 6 Phases=1 kV=0.127017059222 kW=0.0559027778 PF=0.85 Vmaxpu=1.15 Vminpu = 0.50 Daily=media_9100-1
New Load.c13 Bus1=bus_33998182_035.1.4     model = 6 Phases=1 kV=0.127017059222 kW=0.2337962963 PF=0.85 Vmaxpu=1.15 Vminpu = 0.50 Daily=media_9100-2
New Load.c14 Bus1=bus_33998182_018.1.4     model = 6 Phases=1 kV=0.127017059222 kW=0.2174768519 PF=0.85 Vmaxpu=1.15 Vminpu = 0.50 Daily=media_9100-2
New Load.c15 Bus1=bus_33998182_019.2.4     model = 6 Phases=1 kV=0.127017059222 kW=0.1454861111 PF=0.85 Vmaxpu=1.15 Vminpu = 0.50 Daily=media_9100-2
New Load.c16 Bus1=bus_33998182_039.1.4     model = 6 Phases=1 kV=0.127017059222 kW=0.2740740741 PF=0.85 Vmaxpu=1.15 Vminpu = 0.50 Daily=media_9100-2
New Load.c17 Bus1=bus_33998182_016.2.3.4   model = 6 Phases=2 kV=0.22           kW=0.1309027778 PF=0.85 Vmaxpu=1.15 Vminpu = 0.50 Daily=media_9100-1
New Load.c18 Bus1=bus_33998182_024.3.4     model = 6 Phases=1 kV=0.127017059222 kW=0.3084490741 PF=0.85 Vmaxpu=1.15 Vminpu = 0.50 Daily=media_9100-3
New Load.c19 Bus1=bus_33998182_017.1.2.3.4 model = 6 Phases=3 kV=0.22           kW=2.5928240741 PF=0.85 Vmaxpu=1.15 Vminpu = 0.50 Daily=media_5221-0
New Load.c20 Bus1=bus_33998182_034.1.3.4   model = 6 Phases=2 kV=0.22           kW=0.3239583333 PF=0.85 Vmaxpu=1.15 Vminpu = 0.50 Daily=media_9100-3
New Load.c21 Bus1=bus_33998182_020.1.2.3.4 model = 6 Phases=3 kV=0.22           kW=0.1666666667 PF=0.85 Vmaxpu=1.15 Vminpu = 0.50 Daily=media_5769-0
New Load.c22 Bus1=bus_33998182_022.2.4     model = 6 Phases=1 kV=0.127017059222 kW=0.0809027778 PF=0.85 Vmaxpu=1.15 Vminpu = 0.50 Daily=media_9100-1
New Load.c23 Bus1=bus_33998182_026.1.4     model = 6 Phases=1 kV=0.127017059222 kW=0.0214120370 PF=0.85 Vmaxpu=1.15 Vminpu = 0.50 Daily=media_5322-0
New Load.c24 Bus1=bus_33998182_019.3.4     model = 6 Phases=1 kV=0.127017059222 kW=0.0010000000 PF=0.85 Vmaxpu=1.15 Vminpu = 0.50 Daily=media_9100-1
New Load.c25 Bus1=bus_33998182_024.2.4     model = 6 Phases=1 kV=0.127017059222 kW=0.2172453704 PF=0.85 Vmaxpu=1.15 Vminpu = 0.50 Daily=media_9100-2
New Load.c26 Bus1=bus_33998182_021.1.3.4   model = 6 Phases=2 kV=0.22           kW=0.3709490741 PF=0.85 Vmaxpu=1.15 Vminpu = 0.50 Daily=media_9100-3
New Load.c27 Bus1=bus_33998182_023.2.3.4   model = 6 Phases=2 kV=0.22           kW=0.0010000000 PF=0.85 Vmaxpu=1.15 Vminpu = 0.50 Daily=media_9100-1
