Reffs/Redes/Rede_03/_trafo3/ckt03_VLN.Txt

SYMMETRICAL COMPONENT VOLTAGES BY BUS (for 3-phase buses)

Bus                    Mag:   V1 (kV)    p.u.     V2 (kV)   %V2/V1    V0 (kV)    %V0/V1

bus_xfmr_pri_33998182      6.87          1  3.98E-005  0.0005793 4.469E-010 6.505E-009
bus_xfmr_sec_33998182    0.1264      0.995  8.701E-005    0.06885 0.0002573    0.2036
bus_33998182_001         0.1263      0.994  0.0001051    0.08325 0.0002609    0.2067
bus_33998182_013         0.1263      0.994          0          0         0         0
bus_33998182_006         0.1261     0.9932  0.0001256    0.09958 0.0003088    0.2448
bus_33998182_014         0.1263      0.994  0.0001051    0.08325 0.0002609    0.2067
bus_33998182_002         0.1262     0.9938  0.0001153     0.0913 0.0002599    0.2059
bus_33998182_003         0.1261     0.9929  0.0001152    0.09136  0.000268    0.2125
bus_33998182_015          0.126     0.9917          0          0         0         0
bus_33998182_016        0.08424     0.6632     0.0421      49.98   0.04214     50.02
bus_33998182_004         0.1262     0.9936  0.0001308     0.1036 0.0002542    0.2015
bus_33998182_005         0.1261     0.9927  0.0001228    0.09737 0.0002787     0.221
bus_33998182_017         0.1261     0.9925  0.0001162     0.0922 0.0002677    0.2124
bus_33998182_018         0.1259     0.9912          0          0         0         0
bus_33998182_019        0.08423     0.6631     0.0421      49.98   0.04213     50.02
bus_33998182_020         0.1261     0.9927  0.0001228    0.09741 0.0002787     0.221
bus_33998182_021        0.08392     0.6607    0.04205       50.1   0.04188      49.9
bus_33998182_022         0.1266     0.9965          0          0         0         0
bus_33998182_007          0.126     0.9921  0.0001554     0.1233 0.0003443    0.2732
bus_33998182_023        0.08418     0.6628    0.04206      49.97   0.04212     50.04
bus_33998182_008         0.1259     0.9912  0.0001524      0.121 0.0003687    0.2929
bus_33998182_009          0.126     0.9918  0.0001728     0.1372 0.0003557    0.2823
bus_33998182_010          0.126      0.992   0.000162     0.1285 0.0003461    0.2747
bus_33998182_024          0.084     0.6613    0.04196      49.95   0.04204     50.05
bus_33998182_011         0.1258     0.9905  0.0001899      0.151 0.0004234    0.3366
bus_33998182_025         0.1264     0.9951          0          0         0         0
bus_33998182_026        0.08405     0.6617    0.04197      49.93   0.04208     50.07
bus_33998182_027         0.1258     0.9901          0          0         0         0
bus_33998182_012         0.1259     0.9913  0.0002084     0.1656 0.0003777       0.3
bus_33998182_028         0.1256     0.9892          0          0         0         0
bus_33998182_029         0.1258     0.9901          0          0         0         0
bus_33998182_030         0.1257     0.9896          0          0         0         0
bus_33998182_031         0.1254     0.9872          0          0         0         0
bus_33998182_032         0.1254     0.9871          0          0         0         0
bus_33998182_033         0.1256     0.9887          0          0         0         0
bus_33998182_034        0.08366     0.6587    0.04195      50.14   0.04171     49.86
bus_33998182_035         0.1255     0.9881          0          0         0         0
bus_33998182_036         0.1265     0.9958          0          0         0         0
bus_33998182_037         0.1257     0.9895          0          0         0         0
bus_33998182_038         0.1265     0.9957          0          0         0         0
bus_33998182_039         0.1255     0.9881          0          0         0         0
